[TITLE]
;;Project Title/Notes
CITY OF OLDSMAR MODEL CONVERSION (ICPR2 to SWMM5) - compiled: Monday, April 15, 2019
URS CORPORATION, 2002 SWMP MODEL
Oldsmar1_50YR_1DAY.inp
*****************************************************

[OPTIONS]
;;Option             Value
FLOW_UNITS           CFS
INFILTRATION         CURVE_NUMBER
FLOW_ROUTING         DYNWAVE
LINK_OFFSETS         ELEVATION
MIN_SLOPE            0.01
ALLOW_PONDING        YES
SKIP_STEADY_STATE    NO

IGNORE_SNOWMELT      YES
IGNORE_GROUNDWATER   YES
IGNORE_QUALITY       YES
START_DATE           01/01/2014
START_TIME           00:00:00
REPORT_START_DATE    01/01/2014
REPORT_START_TIME    00:00:00
END_DATE             01/04/2014
END_TIME             12:00:00
SWEEP_START          01/01
SWEEP_END            01/01
DRY_DAYS             0
REPORT_STEP          00:05:00
WET_STEP             00:05:00
DRY_STEP             00:05:00
ROUTING_STEP         0:00:05 
RULE_STEP            00:00:00

INERTIAL_DAMPING     FULL
NORMAL_FLOW_LIMITED  BOTH
FORCE_MAIN_EQUATION  H-W
VARIABLE_STEP        0.90
LENGTHENING_STEP     0.5
MIN_SURFAREA         100
MAX_TRIALS           8
HEAD_TOLERANCE       0.005
SYS_FLOW_TOL         5
LAT_FLOW_TOL         5
MINIMUM_STEP         0.5
THREADS              1

[FILES]
;;Interfacing Files
USE RUNOFF "Oldsmar_50YR_1DAY.rof"

[EVAPORATION]
;;Data Source    Parameters
;;-------------- ----------------
CONSTANT         0.0
DRY_ONLY         NO

[RAINGAGES]
;;Name           Format    Interval SCF      Source    
;;-------------- --------- ------ ------ ----------
DUMMY            CUMULATIVE 30       1        TIMESERIES DUMMY           

[SUBCATCHMENTS]
;;Name           Rain Gage        Outlet           Area     %Imperv  Width    %Slope   CurbLen  SnowPack        
;;-------------- ---------------- ---------------- -------- -------- -------- -------- -------- ----------------
;paramTC=8, paramCN=92, paramInitAbs=0.2, paramPeakFactor=256, paramPREC=12
SUB101000        DUMMY            101000           201.886382890152 50       0        0.1      0                        
;paramTC=15, paramCN=95, paramInitAbs=0.2, paramPeakFactor=256, paramPREC=12
SUB111015        DUMMY            111015           19.7533259295158 50       0        0.1      0                        
;paramTC=10, paramCN=91, paramInitAbs=0.2, paramPeakFactor=256, paramPREC=12
SUB111016        DUMMY            111016           4.24877859787912 50       0        0.1      0                        
;paramTC=7, paramCN=94, paramInitAbs=0.2, paramPeakFactor=256, paramPREC=12
SUB111017        DUMMY            111017           1.71404397588716 50       0        0.1      0                        
;paramTC=14, paramCN=92, paramInitAbs=0.2, paramPeakFactor=256, paramPREC=12
SUB111020        DUMMY            111020           9.33518682048012 50       0        0.1      0                        
;paramTC=11, paramCN=92, paramInitAbs=0.2, paramPeakFactor=256, paramPREC=12
SUB111022        DUMMY            111022           2.67743173286921 50       0        0.1      0                        
;paramTC=42, paramCN=89, paramInitAbs=0.2, paramPeakFactor=256, paramPREC=12
SUB111026        DUMMY            111026           5.37956661269227 50       0        0.1      0                        
;paramTC=12, paramCN=93, paramInitAbs=0.2, paramPeakFactor=256, paramPREC=12
SUB111030        DUMMY            111030           23.1612068825142 50       0        0.1      0                        
;paramTC=20, paramCN=96, paramInitAbs=0.2, paramPeakFactor=256, paramPREC=12
SUB111050        DUMMY            111050           22.3276673724231 50       0        0.1      0                        
;paramTC=72, paramCN=87, paramInitAbs=0.2, paramPeakFactor=256, paramPREC=12
SUB112015        DUMMY            112015           21.4297316316081 50       0        0.1      0                        
;paramTC=15, paramCN=92, paramInitAbs=0.2, paramPeakFactor=256, paramPREC=12
SUB112016        DUMMY            112016           25.0534369973938 50       0        0.1      0                        
;paramTC=26, paramCN=88, paramInitAbs=0.2, paramPeakFactor=256, paramPREC=12
SUB113015        DUMMY            113015           15.1977006409694 50       0        0.1      0                        
;paramTC=27, paramCN=90, paramInitAbs=0.2, paramPeakFactor=256, paramPREC=12
SUB113020        DUMMY            113020           17.5599054544504 50       0        0.1      0                        
;paramTC=12, paramCN=97, paramInitAbs=0.2, paramPeakFactor=256, paramPREC=12
SUB113021        DUMMY            113021           2.23932257363901 50       0        0.1      0                        
;paramTC=54, paramCN=92, paramInitAbs=0.2, paramPeakFactor=256, paramPREC=12
SUB113022        DUMMY            113022           7.41116114275942 50       0        0.1      0                        
;paramTC=33, paramCN=94, paramInitAbs=0.2, paramPeakFactor=256, paramPREC=12
SUB113025        DUMMY            113025           3.00294186954653 50       0        0.1      0                        
;paramTC=17, paramCN=90, paramInitAbs=0.2, paramPeakFactor=256, paramPREC=12
SUB113500        DUMMY            113500           5.1268728965754 50       0        0.1      0                        
;paramTC=40, paramCN=86, paramInitAbs=0.2, paramPeakFactor=256, paramPREC=12
SUB113502        DUMMY            113502           10.0431616106828 50       0        0.1      0                        
;paramTC=30, paramCN=80, paramInitAbs=0.2, paramPeakFactor=256, paramPREC=12
SUB113504        DUMMY            113504           4.69271075780978 50       0        0.1      0                        
;paramTC=17, paramCN=94, paramInitAbs=0.2, paramPeakFactor=256, paramPREC=12
SUB113510        DUMMY            113510           12.7413775723583 50       0        0.1      0                        
;paramTC=67, paramCN=92, paramInitAbs=0.2, paramPeakFactor=256, paramPREC=12
SUB113540        DUMMY            113540           23.0897860881996 50       0        0.1      0                        
;paramTC=17, paramCN=93, paramInitAbs=0.2, paramPeakFactor=256, paramPREC=12
SUB113545        DUMMY            113545           1.64061598355995 50       0        0.1      0                        
;paramTC=30, paramCN=95, paramInitAbs=0.2, paramPeakFactor=256, paramPREC=12
SUB113550        DUMMY            113550           25.7235909037522 50       0        0.1      0                        
;paramTC=32, paramCN=81, paramInitAbs=0.2, paramPeakFactor=256, paramPREC=12
SUB113555        DUMMY            113555           32.2219372276889 50       0        0.1      0                        
;paramTC=42, paramCN=91, paramInitAbs=0.2, paramPeakFactor=256, paramPREC=12
SUB113560        DUMMY            113560           19.849298754113 50       0        0.1      0                        
;paramTC=7, paramCN=90, paramInitAbs=0.2, paramPeakFactor=256, paramPREC=12
SUB113600        DUMMY            113600           5.30456838443785 50       0        0.1      0                        
;paramTC=12, paramCN=92, paramInitAbs=0.2, paramPeakFactor=256, paramPREC=12
SUB113603        DUMMY            113603           1.69437828851716 50       0        0.1      0                        
;paramTC=18, paramCN=93, paramInitAbs=0.2, paramPeakFactor=256, paramPREC=12
SUB113606        DUMMY            113606           3.13117473927186 50       0        0.1      0                        
;paramTC=114, paramCN=94, paramInitAbs=0.2, paramPeakFactor=256, paramPREC=12
SUB113610        DUMMY            113610           51.8778649614415 50       0        0.1      0                        
;paramTC=13, paramCN=96, paramInitAbs=0.2, paramPeakFactor=256, paramPREC=12
SUB113615        DUMMY            113615           31.4585037547911 50       0        0.1      0                        
;paramTC=109, paramCN=95, paramInitAbs=0.2, paramPeakFactor=256, paramPREC=12
SUB113620        DUMMY            113620           71.3385960499909 50       0        0.1      0                        
;paramTC=60, paramCN=95, paramInitAbs=0.2, paramPeakFactor=256, paramPREC=12
SUB113625        DUMMY            113625           24.5635685162483 50       0        0.1      0                        
;paramTC=11, paramCN=96, paramInitAbs=0.2, paramPeakFactor=256, paramPREC=12
SUB113630        DUMMY            113630           88.9172139213659 50       0        0.1      0                        
;paramTC=24, paramCN=94, paramInitAbs=0.2, paramPeakFactor=256, paramPREC=12
SUB113631        DUMMY            113631           5.00323727853552 50       0        0.1      0                        
;paramTC=61, paramCN=93, paramInitAbs=0.2, paramPeakFactor=256, paramPREC=12
SUB113635        DUMMY            113635           16.9829972946245 50       0        0.1      0                        
;paramTC=12, paramCN=93, paramInitAbs=0.2, paramPeakFactor=256, paramPREC=12
SUB113638        DUMMY            113638           4.00418722980191 50       0        0.1      0                        
;paramTC=9, paramCN=94, paramInitAbs=0.2, paramPeakFactor=256, paramPREC=12
SUB113640        DUMMY            113640           7.27241048944201 50       0        0.1      0                        
;paramTC=18, paramCN=91, paramInitAbs=0.2, paramPeakFactor=256, paramPREC=12
SUB113641        DUMMY            113641           5.5521616122249 50       0        0.1      0                        
;paramTC=7, paramCN=93, paramInitAbs=0.2, paramPeakFactor=256, paramPREC=12
SUB113642        DUMMY            113642           2.79689883395302 50       0        0.1      0                        
;paramTC=10, paramCN=92, paramInitAbs=0.2, paramPeakFactor=256, paramPREC=12
SUB113645        DUMMY            113645           1.96540369042402 50       0        0.1      0                        
;paramTC=11, paramCN=92, paramInitAbs=0.2, paramPeakFactor=256, paramPREC=12
SUB113648        DUMMY            113648           2.76775726886142 50       0        0.1      0                        
;paramTC=21, paramCN=93, paramInitAbs=0.2, paramPeakFactor=256, paramPREC=12
SUB113650        DUMMY            113650           12.0119523568202 50       0        0.1      0                        
;paramTC=10, paramCN=93, paramInitAbs=0.2, paramPeakFactor=256, paramPREC=12
SUB113655        DUMMY            113655           9.0798303628819 50       0        0.1      0                        
;paramTC=7, paramCN=98, paramInitAbs=0.2, paramPeakFactor=256, paramPREC=12
SUB113658        DUMMY            113658           0.974608694218637 50       0        0.1      0                        
;paramTC=11, paramCN=92, paramInitAbs=0.2, paramPeakFactor=256, paramPREC=12
SUB113660        DUMMY            113660           4.23885903596661 50       0        0.1      0                        
;paramTC=11, paramCN=94, paramInitAbs=0.2, paramPeakFactor=256, paramPREC=12
SUB113666        DUMMY            113666           5.45173610175504 50       0        0.1      0                        
;paramTC=20, paramCN=96, paramInitAbs=0.2, paramPeakFactor=256, paramPREC=12
SUB113670        DUMMY            113670           48.7324756379174 50       0        0.1      0                        
;paramTC=15, paramCN=94, paramInitAbs=0.2, paramPeakFactor=256, paramPREC=12
SUB113675        DUMMY            113675           5.15020485744606 50       0        0.1      0                        
;paramTC=11, paramCN=93, paramInitAbs=0.2, paramPeakFactor=256, paramPREC=12
SUB113680        DUMMY            113680           32.3897546072523 50       0        0.1      0                        
;paramTC=14, paramCN=92, paramInitAbs=0.2, paramPeakFactor=256, paramPREC=12
SUB113685        DUMMY            113685           4.08363749504687 50       0        0.1      0                        
;paramTC=19, paramCN=94, paramInitAbs=0.2, paramPeakFactor=256, paramPREC=12
SUB113690        DUMMY            113690           13.7694093752249 50       0        0.1      0                        
;paramTC=13, paramCN=93, paramInitAbs=0.2, paramPeakFactor=256, paramPREC=12
SUB113800        DUMMY            113800           5.12741179687248 50       0        0.1      0                        
;paramTC=12, paramCN=86, paramInitAbs=0.2, paramPeakFactor=256, paramPREC=12
SUB113810        DUMMY            113810           22.9911655493392 50       0        0.1      0                        
;paramTC=19, paramCN=84, paramInitAbs=0.2, paramPeakFactor=256, paramPREC=12
SUB113830        DUMMY            113830           5.03967439007223 50       0        0.1      0                        
;paramTC=15, paramCN=88, paramInitAbs=0.2, paramPeakFactor=256, paramPREC=12
SUB113833        DUMMY            113833           10.0504822527988 50       0        0.1      0                        
;paramTC=16, paramCN=86, paramInitAbs=0.2, paramPeakFactor=256, paramPREC=12
SUB113837        DUMMY            113837           9.05560533937112 50       0        0.1      0                        
;paramTC=15, paramCN=95, paramInitAbs=0.2, paramPeakFactor=256, paramPREC=12
SUB115001        DUMMY            115001           7.10041181671057 50       0        0.1      0                        
;paramTC=67, paramCN=92, paramInitAbs=0.2, paramPeakFactor=256, paramPREC=12
SUB117000        DUMMY            117000           242.631178422585 50       0        0.1      0                        
;paramTC=62, paramCN=85, paramInitAbs=0.2, paramPeakFactor=256, paramPREC=12
SUB117005        DUMMY            117005           52.4506838207821 50       0        0.1      0                        
;paramTC=7, paramCN=99, paramInitAbs=0.2, paramPeakFactor=256, paramPREC=12
SUB117010        DUMMY            117010           23.6655753464251 50       0        0.1      0                        
;paramTC=227, paramCN=91, paramInitAbs=0.2, paramPeakFactor=256, paramPREC=12
SUB117100        DUMMY            117100           851.031192542056 50       0        0.1      0                        
;paramTC=26, paramCN=82, paramInitAbs=0.2, paramPeakFactor=256, paramPREC=12
SUB122005        DUMMY            122005           7.96309215174301 50       0        0.1      0                        
;paramTC=33, paramCN=81, paramInitAbs=0.2, paramPeakFactor=256, paramPREC=12
SUB122010        DUMMY            122010           6.07750254177041 50       0        0.1      0                        
;paramTC=25, paramCN=84, paramInitAbs=0.2, paramPeakFactor=256, paramPREC=12
SUB122015        DUMMY            122015           13.9936039803583 50       0        0.1      0                        
;paramTC=25, paramCN=82, paramInitAbs=0.2, paramPeakFactor=256, paramPREC=12
SUB122020        DUMMY            122020           5.84398760560865 50       0        0.1      0                        
;paramTC=7, paramCN=92, paramInitAbs=0.2, paramPeakFactor=256, paramPREC=12
SUB122022        DUMMY            122022           2.74564244120885 50       0        0.1      0                        
;paramTC=7, paramCN=82, paramInitAbs=0.2, paramPeakFactor=256, paramPREC=12
SUB122024        DUMMY            122024           1.16092113450913 50       0        0.1      0                        
;paramTC=41, paramCN=84, paramInitAbs=0.2, paramPeakFactor=256, paramPREC=12
SUB122025        DUMMY            122025           23.9779139336373 50       0        0.1      0                        
;paramTC=22, paramCN=84, paramInitAbs=0.2, paramPeakFactor=256, paramPREC=12
SUB123005        DUMMY            123005           27.2743994415719 50       0        0.1      0                        
;paramTC=21, paramCN=91, paramInitAbs=0.2, paramPeakFactor=256, paramPREC=12
SUB123010        DUMMY            123010           21.5617041790988 50       0        0.1      0                        
;paramTC=21, paramCN=86, paramInitAbs=0.2, paramPeakFactor=256, paramPREC=12
SUB123030        DUMMY            123030           2.63284070262345 50       0        0.1      0                        
;paramTC=24, paramCN=87, paramInitAbs=0.2, paramPeakFactor=256, paramPREC=12
SUB123050        DUMMY            123050           14.6274694104148 50       0        0.1      0                        
;paramTC=18, paramCN=88, paramInitAbs=0.2, paramPeakFactor=256, paramPREC=12
SUB123060        DUMMY            123060           15.931359040519 50       0        0.1      0                        
;paramTC=39, paramCN=85, paramInitAbs=0.2, paramPeakFactor=256, paramPREC=12
SUB123111        DUMMY            123111           42.5904202110358 50       0        0.1      0                        
;paramTC=9, paramCN=92, paramInitAbs=0.2, paramPeakFactor=256, paramPREC=12
SUB124001        DUMMY            124001           4.47435507996461 50       0        0.1      0                        
;paramTC=8, paramCN=97, paramInitAbs=0.2, paramPeakFactor=256, paramPREC=12
SUB130000        DUMMY            130000           29.6749207693151 50       0        0.1      0                        
;paramTC=12, paramCN=94, paramInitAbs=0.2, paramPeakFactor=256, paramPREC=12
SUB130005        DUMMY            130005           10.8489917722154 50       0        0.1      0                        
;paramTC=19, paramCN=98, paramInitAbs=0.2, paramPeakFactor=256, paramPREC=12
SUB130010        DUMMY            130010           8.976098350413 50       0        0.1      0                        
;paramTC=7, paramCN=96, paramInitAbs=0.2, paramPeakFactor=256, paramPREC=12
SUB130070        DUMMY            130070           3.43212440034885 50       0        0.1      0                        
;paramTC=17, paramCN=91, paramInitAbs=0.2, paramPeakFactor=256, paramPREC=12
SUB130073        DUMMY            130073           7.21656742523729 50       0        0.1      0                        
;paramTC=10, paramCN=91, paramInitAbs=0.2, paramPeakFactor=256, paramPREC=12
SUB130075        DUMMY            130075           1.42187698014264 50       0        0.1      0                        
;paramTC=14, paramCN=92, paramInitAbs=0.2, paramPeakFactor=256, paramPREC=12
SUB130085        DUMMY            130085           10.2398404990188 50       0        0.1      0                        
;paramTC=19, paramCN=96, paramInitAbs=0.2, paramPeakFactor=256, paramPREC=12
SUB130100        DUMMY            130100           40.7962315777455 50       0        0.1      0                        
;paramTC=15, paramCN=92, paramInitAbs=0.2, paramPeakFactor=256, paramPREC=12
SUB130105        DUMMY            130105           6.0766172478126 50       0        0.1      0                        
;paramTC=31, paramCN=91, paramInitAbs=0.2, paramPeakFactor=256, paramPREC=12
SUB130107        DUMMY            130107           17.3486291626704 50       0        0.1      0                        
;paramTC=44, paramCN=91, paramInitAbs=0.2, paramPeakFactor=256, paramPREC=12
SUB130109        DUMMY            130109           18.3826740697224 50       0        0.1      0                        
;paramTC=20, paramCN=95, paramInitAbs=0.2, paramPeakFactor=256, paramPREC=12
SUB130120        DUMMY            130120           5.79135267176794 50       0        0.1      0                        
;paramTC=13, paramCN=91, paramInitAbs=0.2, paramPeakFactor=256, paramPREC=12
SUB130123        DUMMY            130123           4.46911348875025 50       0        0.1      0                        
;paramTC=15, paramCN=92, paramInitAbs=0.2, paramPeakFactor=256, paramPREC=12
SUB130125        DUMMY            130125           29.3809399959677 50       0        0.1      0                        
;paramTC=24, paramCN=91, paramInitAbs=0.2, paramPeakFactor=256, paramPREC=12
SUB130135        DUMMY            130135           11.9775373953332 50       0        0.1      0                        
;paramTC=7, paramCN=92, paramInitAbs=0.2, paramPeakFactor=256, paramPREC=12
SUB130140        DUMMY            130140           0.341032719314274 50       0        0.1      0                        
;paramTC=12, paramCN=91, paramInitAbs=0.2, paramPeakFactor=256, paramPREC=12
SUB130143        DUMMY            130143           5.43678714173373 50       0        0.1      0                        
;paramTC=52, paramCN=94, paramInitAbs=0.2, paramPeakFactor=256, paramPREC=12
SUB130145        DUMMY            130145           10.4743367948455 50       0        0.1      0                        
;paramTC=8, paramCN=93, paramInitAbs=0.2, paramPeakFactor=256, paramPREC=12
SUB130204        DUMMY            130204           6.41619001824214 50       0        0.1      0                        
;paramTC=8, paramCN=91, paramInitAbs=0.2, paramPeakFactor=256, paramPREC=12
SUB130205        DUMMY            130205           2.96221270128826 50       0        0.1      0                        
;paramTC=10, paramCN=93, paramInitAbs=0.2, paramPeakFactor=256, paramPREC=12
SUB130206        DUMMY            130206           11.1992363085508 50       0        0.1      0                        
;paramTC=34, paramCN=93, paramInitAbs=0.2, paramPeakFactor=256, paramPREC=12
SUB130208        DUMMY            130208           16.2371710830755 50       0        0.1      0                        
;paramTC=12, paramCN=92, paramInitAbs=0.2, paramPeakFactor=256, paramPREC=12
SUB130210        DUMMY            130210           6.92651993360847 50       0        0.1      0                        
;paramTC=11, paramCN=93, paramInitAbs=0.2, paramPeakFactor=256, paramPREC=12
SUB130212        DUMMY            130212           23.8835894979743 50       0        0.1      0                        
;paramTC=17, paramCN=97, paramInitAbs=0.2, paramPeakFactor=256, paramPREC=12
SUB130500        DUMMY            130500           5.20253976234585 50       0        0.1      0                        
;paramTC=9, paramCN=96, paramInitAbs=0.2, paramPeakFactor=256, paramPREC=12
SUB130505        DUMMY            130505           1.7387733913474 50       0        0.1      0                        
;paramTC=15, paramCN=95, paramInitAbs=0.2, paramPeakFactor=256, paramPREC=12
SUB130510        DUMMY            130510           5.14758234388289 50       0        0.1      0                        
;paramTC=7, paramCN=96, paramInitAbs=0.2, paramPeakFactor=256, paramPREC=12
SUB130545        DUMMY            130545           3.35706180818642 50       0        0.1      0                        
;paramTC=14, paramCN=95, paramInitAbs=0.2, paramPeakFactor=256, paramPREC=12
SUB130550        DUMMY            130550           6.21851433386371 50       0        0.1      0                        
;paramTC=11, paramCN=93, paramInitAbs=0.2, paramPeakFactor=256, paramPREC=12
SUB130557        DUMMY            130557           2.91646151519985 50       0        0.1      0                        
;paramTC=7, paramCN=95, paramInitAbs=0.2, paramPeakFactor=256, paramPREC=12
SUB130560        DUMMY            130560           0.463344596833206 50       0        0.1      0                        
;paramTC=7, paramCN=91, paramInitAbs=0.2, paramPeakFactor=256, paramPREC=12
SUB130905        DUMMY            130905           1.92276326743684 50       0        0.1      0                        
;paramTC=25, paramCN=92, paramInitAbs=0.2, paramPeakFactor=256, paramPREC=12
SUB130910        DUMMY            130910           4.67950916779122 50       0        0.1      0                        
;paramTC=29, paramCN=92, paramInitAbs=0.2, paramPeakFactor=256, paramPREC=12
SUB130915        DUMMY            130915           6.19839849232764 50       0        0.1      0                        
;paramTC=12, paramCN=92, paramInitAbs=0.2, paramPeakFactor=256, paramPREC=12
SUB130920        DUMMY            130920           4.45338080841624 50       0        0.1      0                        
;paramTC=26, paramCN=98, paramInitAbs=0.2, paramPeakFactor=256, paramPREC=12
SUB131000        DUMMY            131000           7.95502498347345 50       0        0.1      0                        
;paramTC=15, paramCN=89, paramInitAbs=0.2, paramPeakFactor=256, paramPREC=12
SUB131005        DUMMY            131005           36.7590708747812 50       0        0.1      0                        
;paramTC=11, paramCN=92, paramInitAbs=0.2, paramPeakFactor=256, paramPREC=12
SUB131007        DUMMY            131007           7.3067888931437 50       0        0.1      0                        
;paramTC=17, paramCN=91, paramInitAbs=0.2, paramPeakFactor=256, paramPREC=12
SUB131010        DUMMY            131010           7.65634601010438 50       0        0.1      0                        
;paramTC=13, paramCN=91, paramInitAbs=0.2, paramPeakFactor=256, paramPREC=12
SUB131013        DUMMY            131013           7.5719872311672 50       0        0.1      0                        
;paramTC=13, paramCN=91, paramInitAbs=0.2, paramPeakFactor=256, paramPREC=12
SUB131015        DUMMY            131015           2.63540739932287 50       0        0.1      0                        
;paramTC=9, paramCN=91, paramInitAbs=0.2, paramPeakFactor=256, paramPREC=12
SUB131017        DUMMY            131017           1.06394369241958 50       0        0.1      0                        
;paramTC=12, paramCN=93, paramInitAbs=0.2, paramPeakFactor=256, paramPREC=12
SUB131018        DUMMY            131018           3.26876435732527 50       0        0.1      0                        
;paramTC=7, paramCN=92, paramInitAbs=0.2, paramPeakFactor=256, paramPREC=12
SUB131020        DUMMY            131020           0.326052355151255 50       0        0.1      0                        
;paramTC=20, paramCN=96, paramInitAbs=0.2, paramPeakFactor=256, paramPREC=12
SUB131030        DUMMY            131030           5.35871573861072 50       0        0.1      0                        
;paramTC=47, paramCN=97, paramInitAbs=0.2, paramPeakFactor=256, paramPREC=12
SUB131040        DUMMY            131040           12.0611219214165 50       0        0.1      0                        
;paramTC=23, paramCN=96, paramInitAbs=0.2, paramPeakFactor=256, paramPREC=12
SUB131045        DUMMY            131045           2.39063878692063 50       0        0.1      0                        
;paramTC=7, paramCN=96, paramInitAbs=0.2, paramPeakFactor=256, paramPREC=12
SUB131100        DUMMY            131100           5.39578967309049 50       0        0.1      0                        
;paramTC=46, paramCN=95, paramInitAbs=0.2, paramPeakFactor=256, paramPREC=12
SUB131500        DUMMY            131500           14.0072105855574 50       0        0.1      0                        
;paramTC=43, paramCN=89, paramInitAbs=0.2, paramPeakFactor=256, paramPREC=12
SUB131510        DUMMY            131510           82.3052599687446 50       0        0.1      0                        
;paramTC=10, paramCN=95, paramInitAbs=0.2, paramPeakFactor=256, paramPREC=12
SUB131515        DUMMY            131515           8.53144566048365 50       0        0.1      0                        
;paramTC=14, paramCN=92, paramInitAbs=0.2, paramPeakFactor=256, paramPREC=12
SUB131520        DUMMY            131520           15.5136717035573 50       0        0.1      0                        
;paramTC=18, paramCN=87, paramInitAbs=0.2, paramPeakFactor=256, paramPREC=12
SUB131530        DUMMY            131530           29.0037724799577 50       0        0.1      0                        
;paramTC=20, paramCN=92, paramInitAbs=0.2, paramPeakFactor=256, paramPREC=12
SUB131540        DUMMY            131540           5.63315507662997 50       0        0.1      0                        
;paramTC=24, paramCN=91, paramInitAbs=0.2, paramPeakFactor=256, paramPREC=12
SUB131545        DUMMY            131545           12.3278351500248 50       0        0.1      0                        
;paramTC=12, paramCN=92, paramInitAbs=0.2, paramPeakFactor=256, paramPREC=12
SUB131550        DUMMY            131550           8.72501411473686 50       0        0.1      0                        
;paramTC=14, paramCN=84, paramInitAbs=0.2, paramPeakFactor=256, paramPREC=12
SUB131560        DUMMY            131560           16.1528297313685 50       0        0.1      0                        
;paramTC=14, paramCN=85, paramInitAbs=0.2, paramPeakFactor=256, paramPREC=12
SUB131600        DUMMY            131600           12.8688793966694 50       0        0.1      0                        
;paramTC=23, paramCN=82, paramInitAbs=0.2, paramPeakFactor=256, paramPREC=12
SUB131610        DUMMY            131610           2.84335993209354 50       0        0.1      0                        
;paramTC=13, paramCN=82, paramInitAbs=0.2, paramPeakFactor=256, paramPREC=12
SUB131620        DUMMY            131620           5.37949188145383 50       0        0.1      0                        
;paramTC=10, paramCN=94, paramInitAbs=0.2, paramPeakFactor=256, paramPREC=12
SUB131630        DUMMY            131630           34.9117507825028 50       0        0.1      0                        
;paramTC=25, paramCN=83, paramInitAbs=0.2, paramPeakFactor=256, paramPREC=12
SUB131633        DUMMY            131633           16.0229269191291 50       0        0.1      0                        
;paramTC=27, paramCN=83, paramInitAbs=0.2, paramPeakFactor=256, paramPREC=12
SUB131636        DUMMY            131636           7.28494478172852 50       0        0.1      0                        
;paramTC=20, paramCN=83, paramInitAbs=0.2, paramPeakFactor=256, paramPREC=12
SUB131640        DUMMY            131640           8.76754590173177 50       0        0.1      0                        
;paramTC=12, paramCN=94, paramInitAbs=0.2, paramPeakFactor=256, paramPREC=12
SUB131650        DUMMY            131650           18.3873029395846 50       0        0.1      0                        
;paramTC=7, paramCN=91, paramInitAbs=0.2, paramPeakFactor=256, paramPREC=12
SUB131656        DUMMY            131656           4.38728990332815 50       0        0.1      0                        
;paramTC=31, paramCN=91, paramInitAbs=0.2, paramPeakFactor=256, paramPREC=12
SUB131669        DUMMY            131669           22.4412058584022 50       0        0.1      0                        